 CRYSTAL
 PRIMVEC
 12.444660000    0.000000000    0.000000000
 0.000000000    12.444660000    0.000000000
 0.000000000   0.000000000    12.444660000
  PRIMCOORD
         191           1
O    14.290642     5.601711     2.674821 
O     5.594461     1.253753    10.414155 
O     2.165668     1.609143    10.328322 
O     9.842484     9.314366     2.703662 
O     3.287926     8.858426     6.692980 
O    -0.310071     7.001491    15.832665 
O     3.901756     7.370856     1.601592 
O    14.806802     9.330453     2.641780 
O    14.651647     7.809227    10.477127 
O     4.659744     4.828636     9.436923 
O     2.107835    11.612847    11.525638 
O    -0.090358     1.225903     6.866180 
O     4.114623     0.029336     4.457201 
O     8.385501    12.612727     6.130148 
O     3.336362     2.744361     0.513562 
O     0.085623     9.291558    -0.793327 
O    11.353338     2.599170     3.046934 
O    -3.708342     9.427398    10.767222 
O     8.943412    -5.565198     9.707650 
O     0.639839     3.748194     1.191977 
O     2.013128    12.372692     8.276755 
O     6.306999    14.089026     7.201731 
O     0.179590     3.719449     8.907428 
O     2.647209     4.102944     7.652961 
O     5.123668     8.088791    11.674390 
O     9.816925     6.792095     1.971762 
O     5.420997     3.070678     2.465246 
O     7.383768     4.065838     7.724453 
O     8.315014    11.716618     2.242145 
O     3.271638    13.031042     2.010159 
O     6.852580    10.456542     6.632284 
O     4.683779    11.402658     7.869606 
O    12.642520    11.579138     5.042990 
O     9.847141     9.783269    -4.093096 
O    -1.782401     5.801317     5.376123 
O     0.285140    10.411985    -3.231283 
O     8.588387     1.030149    10.041773 
O     5.815552     6.630379     3.405414 
O     3.290371     5.755437    11.364980 
O     3.974052    10.666942     1.458164 
O     7.990523     5.095003    17.790250 
O     4.720208     2.470051     5.174797 
O    12.676810     0.171338     2.540146 
O     7.628724    -0.994081    12.009306 
O     7.620152     7.287881     0.033224 
O    -0.209062    -2.216258     1.609090 
O    10.255772     0.365878     8.072492 
O    11.482299     9.059990     4.952268 
O     8.104666     4.435727     2.376852 
O     6.148616    10.973283     3.777510 
O    10.572537     6.840727    11.794566 
O     8.843980     1.524618    16.090903 
O     5.759141     7.889926     5.976580 
O     2.450260    10.453525     4.816312 
O     5.091150    10.572220    10.320067 
O     1.834620     6.998527     7.973060 
O    -0.878339     7.832511     7.379958 
O     7.194535     4.530228    11.714713 
O    10.347531     4.891344     8.503454 
O     2.459997     4.314641     4.841585 
O     9.391202     2.875824    -0.669473 
O     6.470250     6.416115     8.524357 
O    -0.593530     4.561883    -1.165878 
O    -0.078317     3.809388     5.529849 
H     5.047948     1.954167     9.987744 
H     2.196604     0.749453    10.801459 
H    10.286940     8.981513     3.564797 
H     3.824993    11.868069     8.036667 
H    12.027880     7.808592    16.409891 
H     4.602302     7.111189     2.252739 
H    15.583634     9.946468     1.840277 
H    14.457439     7.482566     9.491905 
H     4.034585     4.561957     8.698297 
H     5.652353    11.151828    10.899516 
H    13.177095     0.991858     7.358791 
H     3.722185     0.275032     3.573322 
H     8.284904    12.840432     5.178745 
H     3.304352    14.311968     0.988254 
H    -0.203196     9.926412    -0.044452 
H    10.472523     2.257417     3.331657 
H     8.467682    10.200049    11.414882 
H     8.052437    -5.751627     9.400198 
H     1.205794     4.256294     1.739797 
H     1.397038    11.661055     8.736398 
H     5.583296    13.541698     7.513205 
H    -0.643749     4.000564     8.440588 
H     1.694775     4.049328     7.989041 
H     4.648568     7.294390    -1.077934 
H    10.150836     6.803102     1.034049 
H     5.561494     4.023430     2.592598 
H     7.082878     3.148202     7.702280 
H     8.916530    10.972754     2.439772 
H     1.989500    11.387788     0.009928 
H     5.122033     0.948995    11.199506 
H     4.881453    11.011913     8.773494 
H    14.929042     6.146446     2.194577 
H     9.359134     9.779989     9.196994 
H    -1.234518     4.942610     5.594250 
H    12.690622    10.082043    -2.303313 
H     7.639678     1.242085    10.134326 
H     6.649165     6.335310     3.139725 
H     3.392941     5.914137    12.295856 
H     4.703729    10.436168     2.056674 
H     7.783879     4.770585    16.944360 
H     5.511169     2.275817     5.778403 
H    12.287971     1.092301     2.596678 
H     8.054342    -0.338142    11.493517 
H     7.929668     7.220941     0.978052 
H    -0.064226    -1.285837     1.916098 
H     9.614144     0.726280     8.658556 
H    11.845314    10.002031     4.910870 
H     8.738885     5.219957     2.203049 
H     6.688535    10.737111     4.584426 
H     9.831901     7.059700    11.243799 
H     8.457522     2.265011     3.094433 
H     1.196819    11.304284     5.127023 
H     3.163570    11.090337     4.964434 
H     6.022777    10.890996     6.916452 
H     2.202970     6.108875     8.146524 
H    11.016517     8.603046     7.774037 
H     6.564285     4.556200    10.992439 
H     9.496720     4.509447     8.225213 
H     3.240729     3.731144     4.992983 
H    10.115487     3.403350    -1.027662 
H     5.561229     6.334251     8.920499 
H     0.089278     4.217034    -0.586133 
H    13.314681     4.001342     5.304790 
H    13.603823     6.267257     2.874554 
H     5.847302     7.374031     6.786592 
H     2.828807    14.651859    10.708800 
H     9.654732     8.510281     2.194858 
H     2.846815     9.337173     5.886620 
H    11.853093     6.365473    16.521706 
H     3.310078     8.083552     1.882828 
H    13.933712     9.329235     2.157117 
H    13.941861     8.354967    10.910576 
H     4.046967     4.957861    10.185656 
H     2.895007    11.101132    11.232104 
H    -0.797190    13.382786     7.456954 
H     4.407898     0.854791     4.913522 
H     7.944537    11.722386     6.376003 
H     2.506797     3.180413     0.728751 
H    -0.576708     8.543090    -0.739737 
H    11.663807     3.157791     3.834053 
H    -4.155872     8.678453    11.143731 
H     9.153231    -4.794367     9.202127 
H    -0.227459     3.591526     1.666178 
H     2.163525    13.039773     8.943783 
H     7.123731    13.575565     6.951589 
H     0.175456     2.698952     9.060096 
H     2.525239     4.268185     6.682079 
H     4.671571     8.346765    12.527265 
H    10.597409     6.879198     2.620374 
H     4.706666     3.049876     1.820671 
H     7.516856     4.363839     6.791884 
H     7.448698    11.424513     2.669990 
H     2.324231    12.946215    14.522422 
H     6.774050     9.504711     6.523855 
H     3.523839     9.520851     7.330004 
H    12.497949    12.348350     5.698127 
H     9.829625    10.618152     7.901304 
H    -1.738130     6.277576     6.241804 
H    -0.593218    -2.262778     8.833079 
H     8.884991     1.741019    10.722506 
H     5.755225     7.027262     4.321907 
H     2.776000     6.620377    11.057846 
H     3.591049    12.021213     1.917939 
H     8.946693     5.338181    17.762309 
H     5.047430     2.751139     4.243848 
H    12.710942    -0.166692     3.522415 
H     7.845423    -0.883350    12.958333 
H     6.644825     7.262798     0.125206 
H    11.308782    -2.335037     1.899820 
H     9.759933     0.337999     7.209352 
H    11.493411     8.652206     5.856351 
H     7.813143     4.205403     1.459000 
H     5.449943    11.717465     4.009549 
H    -1.395234     6.023042    -0.956652 
H     8.669404     0.699546     3.019612 
H     4.914903     8.314221     6.037224 
H     2.402142    10.063786     3.908095 
H     5.165013     9.698548    10.772990 
H     2.322162     7.611579     7.350271 
H     0.003394     7.904055     7.659999 
H     7.544744     5.453594    11.596548 
H    10.176819     5.714214     9.019138 
H     2.520116     4.937303     4.056445 
H     8.698880     3.524273    -0.797687 
H     6.636200     5.411631     8.434979 
H    -0.263756     4.414206    10.340228 
H    -0.077120     3.013537     6.076489 
