 CRYSTAL
 PRIMVEC
 6.58613953811114    0.000000000    0.000000000
 0.000000000    6.58613953811114    0.000000000
 0.000000000   0.000000000    6.58613953811114
  PRIMCOORD
         191           1
O     0.000000     0.000000     0.000000 
O     0.000000     0.000000     0.000000 
O     0.000000     0.000000     0.000000 
O     0.000000     0.000000     0.000000 
O     0.000000     0.000000     0.000000 
O     0.000000     0.000000     0.000000 
O     0.000000     0.000000     0.000000 
O     0.000000     0.000000     0.000000 
O     0.000000     0.000000     0.000000 
O     0.000000     0.000000     0.000000 
O     0.000000     0.000000     0.000000 
O     0.000000     0.000000     0.000000 
O     0.000000     0.000000     0.000000 
O     0.000000     0.000000     0.000000 
O     0.000000     0.000000     0.000000 
O     0.000000     0.000000     0.000000 
O     0.000000     0.000000     0.000000 
O     0.000000     0.000000     0.000000 
O     0.000000     0.000000     0.000000 
O     0.000000     0.000000     0.000000 
O     0.000000     0.000000     0.000000 
O     0.000000     0.000000     0.000000 
O     0.000000     0.000000     0.000000 
O     0.000000     0.000000     0.000000 
O     0.000000     0.000000     0.000000 
O     0.000000     0.000000     0.000000 
O     0.000000     0.000000     0.000000 
O     0.000000     0.000000     0.000000 
O     0.000000     0.000000     0.000000 
O     0.000000     0.000000     0.000000 
O     0.000000     0.000000     0.000000 
O     0.000000     0.000000     0.000000 
O     0.000000     0.000000     0.000000 
O     0.000000     0.000000     0.000000 
O     0.000000     0.000000     0.000000 
O     0.000000     0.000000     0.000000 
O     0.000000     0.000000     0.000000 
O     0.000000     0.000000     0.000000 
O     0.000000     0.000000     0.000000 
O     0.000000     0.000000     0.000000 
O     0.000000     0.000000     0.000000 
O     0.000000     0.000000     0.000000 
O     0.000000     0.000000     0.000000 
O     0.000000     0.000000     0.000000 
O     0.000000     0.000000     0.000000 
O     0.000000     0.000000     0.000000 
O     0.000000     0.000000     0.000000 
O     0.000000     0.000000     0.000000 
O     0.000000     0.000000     0.000000 
O     0.000000     0.000000     0.000000 
O     0.000000     0.000000     0.000000 
O     0.000000     0.000000     0.000000 
O     0.000000     0.000000     0.000000 
O     0.000000     0.000000     0.000000 
O     0.000000     0.000000     0.000000 
O     0.000000     0.000000     0.000000 
O     0.000000     0.000000     0.000000 
O     0.000000     0.000000     0.000000 
O     0.000000     0.000000     0.000000 
O     0.000000     0.000000     0.000000 
O     0.000000     0.000000     0.000000 
O     0.000000     0.000000     0.000000 
O     0.000000     0.000000     0.000000 
O     0.000000     0.000000     0.000000 
H     0.000000     0.000000     0.000000 
H     0.000000     0.000000     0.000000 
H     0.000000     0.000000     0.000000 
H     0.000000     0.000000     0.000000 
H     0.000000     0.000000     0.000000 
H     0.000000     0.000000     0.000000 
H     0.000000     0.000000     0.000000 
H     0.000000     0.000000     0.000000 
H     0.000000     0.000000     0.000000 
H     0.000000     0.000000     0.000000 
H     0.000000     0.000000     0.000000 
H     0.000000     0.000000     0.000000 
H     0.000000     0.000000     0.000000 
H     0.000000     0.000000     0.000000 
H     0.000000     0.000000     0.000000 
H     0.000000     0.000000     0.000000 
H     0.000000     0.000000     0.000000 
H     0.000000     0.000000     0.000000 
H     0.000000     0.000000     0.000000 
H     0.000000     0.000000     0.000000 
H     0.000000     0.000000     0.000000 
H     0.000000     0.000000     0.000000 
H     0.000000     0.000000     0.000000 
H     0.000000     0.000000     0.000000 
H     0.000000     0.000000     0.000000 
H     0.000000     0.000000     0.000000 
H     0.000000     0.000000     0.000000 
H     0.000000     0.000000     0.000000 
H     0.000000     0.000000     0.000000 
H     0.000000     0.000000     0.000000 
H     0.000000     0.000000     0.000000 
H     0.000000     0.000000     0.000000 
H     0.000000     0.000000     0.000000 
H     0.000000     0.000000     0.000000 
H     0.000000     0.000000     0.000000 
H     0.000000     0.000000     0.000000 
H     0.000000     0.000000     0.000000 
H     0.000000     0.000000     0.000000 
H     0.000000     0.000000     0.000000 
H     0.000000     0.000000     0.000000 
H     0.000000     0.000000     0.000000 
H     0.000000     0.000000     0.000000 
H     0.000000     0.000000     0.000000 
H     0.000000     0.000000     0.000000 
H     0.000000     0.000000     0.000000 
H     0.000000     0.000000     0.000000 
H     0.000000     0.000000     0.000000 
H     0.000000     0.000000     0.000000 
H     0.000000     0.000000     0.000000 
H     0.000000     0.000000     0.000000 
H     0.000000     0.000000     0.000000 
H     0.000000     0.000000     0.000000 
H     0.000000     0.000000     0.000000 
H     0.000000     0.000000     0.000000 
H     0.000000     0.000000     0.000000 
H     0.000000     0.000000     0.000000 
H     0.000000     0.000000     0.000000 
H     0.000000     0.000000     0.000000 
H     0.000000     0.000000     0.000000 
H     0.000000     0.000000     0.000000 
H     0.000000     0.000000     0.000000 
H     0.000000     0.000000     0.000000 
H     0.000000     0.000000     0.000000 
H     0.000000     0.000000     0.000000 
H     0.000000     0.000000     0.000000 
H     0.000000     0.000000     0.000000 
H     0.000000     0.000000     0.000000 
H     0.000000     0.000000     0.000000 
H     0.000000     0.000000     0.000000 
H     0.000000     0.000000     0.000000 
H     0.000000     0.000000     0.000000 
H     0.000000     0.000000     0.000000 
H     0.000000     0.000000     0.000000 
H     0.000000     0.000000     0.000000 
H     0.000000     0.000000     0.000000 
H     0.000000     0.000000     0.000000 
H     0.000000     0.000000     0.000000 
H     0.000000     0.000000     0.000000 
H     0.000000     0.000000     0.000000 
H     0.000000     0.000000     0.000000 
H     0.000000     0.000000     0.000000 
H     0.000000     0.000000     0.000000 
H     0.000000     0.000000     0.000000 
H     0.000000     0.000000     0.000000 
H     0.000000     0.000000     0.000000 
H     0.000000     0.000000     0.000000 
H     0.000000     0.000000     0.000000 
H     0.000000     0.000000     0.000000 
H     0.000000     0.000000     0.000000 
H     0.000000     0.000000     0.000000 
H     0.000000     0.000000     0.000000 
H     0.000000     0.000000     0.000000 
H     0.000000     0.000000     0.000000 
H     0.000000     0.000000     0.000000 
H     0.000000     0.000000     0.000000 
H     0.000000     0.000000     0.000000 
H     0.000000     0.000000     0.000000 
H     0.000000     0.000000     0.000000 
H     0.000000     0.000000     0.000000 
H     0.000000     0.000000     0.000000 
H     0.000000     0.000000     0.000000 
H     0.000000     0.000000     0.000000 
H     0.000000     0.000000     0.000000 
H     0.000000     0.000000     0.000000 
H     0.000000     0.000000     0.000000 
H     0.000000     0.000000     0.000000 
H     0.000000     0.000000     0.000000 
H     0.000000     0.000000     0.000000 
H     0.000000     0.000000     0.000000 
H     0.000000     0.000000     0.000000 
H     0.000000     0.000000     0.000000 
H     0.000000     0.000000     0.000000 
H     0.000000     0.000000     0.000000 
H     0.000000     0.000000     0.000000 
H     0.000000     0.000000     0.000000 
H     0.000000     0.000000     0.000000 
H     0.000000     0.000000     0.000000 
H     0.000000     0.000000     0.000000 
H     0.000000     0.000000     0.000000 
H     0.000000     0.000000     0.000000 
H     0.000000     0.000000     0.000000 
H     0.000000     0.000000     0.000000 
H     0.000000     0.000000     0.000000 
H     0.000000     0.000000     0.000000 
H     0.000000     0.000000     0.000000 
H     0.000000     0.000000     0.000000 
H     0.000000     0.000000     0.000000 
