 CRYSTAL
 PRIMVEC
 2.64588604295    0.000000000    0.000000000
 0.000000000    2.64588604295    0.000000000
 0.000000000   0.000000000    2.64588604295
  PRIMCOORD
         10           1
O     0.000000     0.000000     0.000000 
O     0.000000     0.000000     0.000000 
O     0.000000     0.000000     0.000000 
O     0.000000     0.000000     0.000000 
O     0.000000     0.000000     0.000000 
H     0.000000     0.000000     0.000000 
H     0.000000     0.000000     0.000000 
H     0.000000     0.000000     0.000000 
H     0.000000     0.000000     0.000000 
H     0.000000     0.000000     0.000000 
