 CRYSTAL
 PRIMVEC
 29.63392368104    0.000000000    0.000000000
 0.000000000    29.63392368104    0.000000000
 0.000000000   0.000000000    29.63392368104
  PRIMCOORD
         191           1
O     0.000000     0.000000     0.000000 
O     0.000000     0.000000     0.000000 
O     0.000000     0.000000     0.000000 
O     0.000000     0.000000     0.000000 
O     0.000000     0.000000     0.000000 
O     0.000000     0.000000     0.000000 
O     0.000000     0.000000     0.000000 
O     0.000000     0.000000     0.000000 
O     0.000000     0.000000     0.000000 
O     0.000000     0.000000     0.000000 
O     0.000000     0.000000     0.000000 
O     0.000000     0.000000     0.000000 
O     0.000000     0.000000     0.000000 
O     0.000000     0.000000     0.000000 
O     0.000000     0.000000     0.000000 
O     0.000000     0.000000     0.000000 
O     0.000000     0.000000     0.000000 
O     0.000000     0.000000     0.000000 
O     0.000000     0.000000     0.000000 
O     0.000000     0.000000     0.000000 
O     0.000000     0.000000     0.000000 
O     0.000000     0.000000     0.000000 
O     0.000000     0.000000     0.000000 
O     0.000000     0.000000     0.000000 
O     0.000000     0.000000     0.000000 
O     0.000000     0.000000     0.000000 
O     0.000000     0.000000     0.000000 
O     0.000000     0.000000     0.000000 
O     0.000000     0.000000     0.000000 
O     0.000000     0.000000     0.000000 
O     0.000000     0.000000     0.000000 
O     0.000000     0.000000     0.000000 
O     0.000000     0.000000     0.000000 
O     0.000000     0.000000     0.000000 
O     0.000000     0.000000     0.000000 
O     0.000000     0.000000     0.000000 
O     0.000000     0.000000     0.000000 
O     0.000000     0.000000     0.000000 
O     0.000000     0.000000     0.000000 
O     0.000000     0.000000     0.000000 
O     0.000000     0.000000     0.000000 
O     0.000000     0.000000     0.000000 
O     0.000000     0.000000     0.000000 
O     0.000000     0.000000     0.000000 
O     0.000000     0.000000     0.000000 
O     0.000000     0.000000     0.000000 
O     0.000000     0.000000     0.000000 
O     0.000000     0.000000     0.000000 
O     0.000000     0.000000     0.000000 
O     0.000000     0.000000     0.000000 
O     0.000000     0.000000     0.000000 
O     0.000000     0.000000     0.000000 
O     0.000000     0.000000     0.000000 
O     0.000000     0.000000     0.000000 
O     0.000000     0.000000     0.000000 
O     0.000000     0.000000     0.000000 
O     0.000000     0.000000     0.000000 
O     0.000000     0.000000     0.000000 
O     0.000000     0.000000     0.000000 
O     0.000000     0.000000     0.000000 
O     0.000000     0.000000     0.000000 
O     0.000000     0.000000     0.000000 
O     0.000000     0.000000     0.000000 
O     0.000000     0.000000     0.000000 
O     0.000000     0.000000     0.000000 
O     0.000000     0.000000     0.000000 
O     0.000000     0.000000     0.000000 
O     0.000000     0.000000     0.000000 
O     0.000000     0.000000     0.000000 
O     0.000000     0.000000     0.000000 
O     0.000000     0.000000     0.000000 
O     0.000000     0.000000     0.000000 
O     0.000000     0.000000     0.000000 
O     0.000000     0.000000     0.000000 
O     0.000000     0.000000     0.000000 
O     0.000000     0.000000     0.000000 
O     0.000000     0.000000     0.000000 
O     0.000000     0.000000     0.000000 
O     0.000000     0.000000     0.000000 
O     0.000000     0.000000     0.000000 
O     0.000000     0.000000     0.000000 
O     0.000000     0.000000     0.000000 
O     0.000000     0.000000     0.000000 
O     0.000000     0.000000     0.000000 
O     0.000000     0.000000     0.000000 
O     0.000000     0.000000     0.000000 
O     0.000000     0.000000     0.000000 
O     0.000000     0.000000     0.000000 
O     0.000000     0.000000     0.000000 
O     0.000000     0.000000     0.000000 
O     0.000000     0.000000     0.000000 
O     0.000000     0.000000     0.000000 
O     0.000000     0.000000     0.000000 
O     0.000000     0.000000     0.000000 
O     0.000000     0.000000     0.000000 
O     0.000000     0.000000     0.000000 
O     0.000000     0.000000     0.000000 
O     0.000000     0.000000     0.000000 
O     0.000000     0.000000     0.000000 
O     0.000000     0.000000     0.000000 
O     0.000000     0.000000     0.000000 
O     0.000000     0.000000     0.000000 
O     0.000000     0.000000     0.000000 
O     0.000000     0.000000     0.000000 
O     0.000000     0.000000     0.000000 
O     0.000000     0.000000     0.000000 
O     0.000000     0.000000     0.000000 
O     0.000000     0.000000     0.000000 
O     0.000000     0.000000     0.000000 
O     0.000000     0.000000     0.000000 
O     0.000000     0.000000     0.000000 
O     0.000000     0.000000     0.000000 
O     0.000000     0.000000     0.000000 
O     0.000000     0.000000     0.000000 
O     0.000000     0.000000     0.000000 
O     0.000000     0.000000     0.000000 
O     0.000000     0.000000     0.000000 
O     0.000000     0.000000     0.000000 
O     0.000000     0.000000     0.000000 
O     0.000000     0.000000     0.000000 
O     0.000000     0.000000     0.000000 
O     0.000000     0.000000     0.000000 
O     0.000000     0.000000     0.000000 
O     0.000000     0.000000     0.000000 
O     0.000000     0.000000     0.000000 
O     0.000000     0.000000     0.000000 
O     0.000000     0.000000     0.000000 
H     0.000000     0.000000     0.000000 
H     0.000000     0.000000     0.000000 
H     0.000000     0.000000     0.000000 
H     0.000000     0.000000     0.000000 
H     0.000000     0.000000     0.000000 
H     0.000000     0.000000     0.000000 
H     0.000000     0.000000     0.000000 
H     0.000000     0.000000     0.000000 
H     0.000000     0.000000     0.000000 
H     0.000000     0.000000     0.000000 
H     0.000000     0.000000     0.000000 
H     0.000000     0.000000     0.000000 
H     0.000000     0.000000     0.000000 
H     0.000000     0.000000     0.000000 
H     0.000000     0.000000     0.000000 
H     0.000000     0.000000     0.000000 
H     0.000000     0.000000     0.000000 
H     0.000000     0.000000     0.000000 
H     0.000000     0.000000     0.000000 
H     0.000000     0.000000     0.000000 
H     0.000000     0.000000     0.000000 
H     0.000000     0.000000     0.000000 
H     0.000000     0.000000     0.000000 
H     0.000000     0.000000     0.000000 
H     0.000000     0.000000     0.000000 
H     0.000000     0.000000     0.000000 
H     0.000000     0.000000     0.000000 
H     0.000000     0.000000     0.000000 
H     0.000000     0.000000     0.000000 
H     0.000000     0.000000     0.000000 
H     0.000000     0.000000     0.000000 
H     0.000000     0.000000     0.000000 
H     0.000000     0.000000     0.000000 
H     0.000000     0.000000     0.000000 
H     0.000000     0.000000     0.000000 
H     0.000000     0.000000     0.000000 
H     0.000000     0.000000     0.000000 
H     0.000000     0.000000     0.000000 
H     0.000000     0.000000     0.000000 
H     0.000000     0.000000     0.000000 
H     0.000000     0.000000     0.000000 
H     0.000000     0.000000     0.000000 
H     0.000000     0.000000     0.000000 
H     0.000000     0.000000     0.000000 
H     0.000000     0.000000     0.000000 
H     0.000000     0.000000     0.000000 
H     0.000000     0.000000     0.000000 
H     0.000000     0.000000     0.000000 
H     0.000000     0.000000     0.000000 
H     0.000000     0.000000     0.000000 
H     0.000000     0.000000     0.000000 
H     0.000000     0.000000     0.000000 
H     0.000000     0.000000     0.000000 
H     0.000000     0.000000     0.000000 
H     0.000000     0.000000     0.000000 
H     0.000000     0.000000     0.000000 
H     0.000000     0.000000     0.000000 
H     0.000000     0.000000     0.000000 
H     0.000000     0.000000     0.000000 
H     0.000000     0.000000     0.000000 
H     0.000000     0.000000     0.000000 
H     0.000000     0.000000     0.000000 
H     0.000000     0.000000     0.000000 
H     0.000000     0.000000     0.000000 
